output/ny_only_package_a/original_source_branch.csv
branch_row,device_key,from_bus,to_bus,online,rate_a_mva,from_mva,to_mva,from_overload_mva,to_overload_mva,angle_deg,angle_min_deg,angle_max_deg,angle_below_min_deg,angle_above_max_deg,violated,invalid_limit_bounds,stored_terminal_flow_error_mva,stored_terminal_flow_inconsistent
1,PERFORM2019:AC:1:142:1,142,1,1,167,55.8561565461945,54.9740241451517,0,0,5.14750485772116,0,0,0,0,0,0,7.105427357601e-15,0
2,PERFORM2019:AC:1:199:1,1,199,1,167,17.8907286743074,17.8820860966586,0,0,0.10717917009957,0,0,0,0,0,0,2.57134624311988e-12,0
3,PERFORM2019:AC:1:228:1,1,228,1,167,46.2643207002048,46.036755529686,0,0,1.34288933166016,0,0,0,0,0,0,5.74969144626718e-13,0
4,PERFORM2019:AC:1:228:2,1,228,1,167,41.7941168065466,41.5688403874257,0,0,1.34288933166016,0,0,0,0,0,0,4.05044417540378e-13,0
5,PERFORM2019:AC:1:242:1,1,242,1,167,46.0206521397071,45.9106389697567,0,0,0.7380941254915,0,0,0,0,0,0,7.105427357601e-15,0
6,PERFORM2019:AC:1:881:1,881,1,1,167,27.4870560927654,27.2946787710647,0,0,0.609723620050801,0,0,0,0,0,0,5.36883100758923e-13,0
7,PERFORM2019:AC:1:882:1,882,1,1,167,27.754323195731,27.5644510978288,0,0,0.609446814454046,0,0,0,0,0,0,6.21788331869309e-13,0
8,PERFORM2019:AC:1:883:1,883,1,1,167,26.6546401649793,26.5483365831066,0,0,0.348781748814702,0,0,0,0,0,0,1.77635683940025e-15,0
9,PERFORM2019:AC:1:1402:1,1,1402,1,116,75.5422678357093,75.4861384173694,0,0,0.511364744015495,0,0,0,0,0,0,1.46482137552712e-14,0
10,PERFORM2019:AC:1:1402:2,1,1402,1,116,75.5422678357093,75.4861384173694,0,0,0.511364744015495,0,0,0,0,0,0,1.46482137552712e-14,0
11,PERFORM2019:AC:1:1403:1,1,1403,1,167,75.5243912478453,75.4259405621797,0,0,0.50174782480498,0,0,0,0,0,0,1.77635683940025e-15,0
12,PERFORM2019:AC:1:1404:1,1,1404,1,167,75.4463025997028,75.3476428354391,0,0,0.50341093125077,0,0,0,0,0,0,0,0
13,PERFORM2019:AC:1:1405:1,1,1405,1,167,19.107351575786,19.0937517931333,0,0,0.125689189318535,0,0,0,0,0,0,1.11022302462516e-16,0
14,PERFORM2019:AC:1:1422:1,1,1422,1,167,25.330504193571,25.318088441568,0,0,0.113339519754007,0,0,0,0,0,0,2.85293567039957e-12,0
15,PERFORM2019:AC:1:1550:1,1,1550,1,116,71.4182069411744,72.3024968877633,0,0,-4.1451835678152,0,0,0,0,0,0,2.26100292131484e-13,0
16,PERFORM2019:AC:1:1550:2,1,1550,1,116,71.4182069411744,72.3024968877633,0,0,-4.1451835678152,0,0,0,0,0,0,2.26100292131484e-13,0
17,PERFORM2019:AC:1:1551:1,1,1551,1,556,160.292370718362,161.348358983932,0,0,-1.80875441554656,0,0,0,0,0,0,2.84355838317334e-14,0
18,PERFORM2019:AC:1:1551:2,1,1551,1,556,175.199271732055,176.351530557588,0,0,-1.80875441554656,0,0,0,0,0,0,2.8477166477148e-14,0
19,PERFORM2019:AC:2:777:1,777,2,1,96,1.55162223016262,1.5399999999998,0,0,0.0827667880050171,0,0,0,0,0,0,2.68694621543394e-13,0
20,PERFORM2019:AC:3:794:1,794,3,1,167,3.42206221198246,3.41999999999845,0,0,0.0130661031556087,0,0,0,0,0,0,4.48458732151173e-16,0
21,PERFORM2019:AC:4:193:1,4,193,1,167,25.0355774790061,25.0290215651679,0,0,0.0614305383994491,0,0,0,0,0,0,3.5527136788005e-15,0
22,PERFORM2019:AC:4:193:2,4,193,1,167,24.2347972989279,24.2285058245524,0,0,0.0614305383994491,0,0,0,0,0,0,3.55295761591468e-15,0
23,PERFORM2019:AC:4:193:3,4,193,1,167,24.7995391761141,24.7930394920674,0,0,0.0614305383994491,0,0,0,0,0,0,3.56053842261658e-15,0
24,PERFORM2019:AC:4:449:1,4,449,1,167,13.0786174618557,13.0198972126563,0,0,0.204778593041041,0,0,0,0,0,0,7.25916792536801e-13,0
25,PERFORM2019:AC:4:1527:1,4,1527,1,167,80.5415996101046,80.8622556557966,0,0,-0.989308737088209,0,0,0,0,0,0,1.26900716512159e-12,0
26,PERFORM2019:AC:4:1527:2,4,1527,1,167,80.5415996101046,80.8622556557966,0,0,-0.989308737088209,0,0,0,0,0,0,1.26900716512159e-12,0
27,PERFORM2019:AC:5:990:1,990,5,1,167,3.42000710641942,3.42000000023184,0,0,0.000367840343656667,0,0,0,0,0,0,1.46480929371561e-10,0
28,PERFORM2019:AC:6:635:1,635,6,1,167,7.97012294793625,7.99444907815584,0,0,-0.0668333430763823,0,0,0,0,0,0,1.46023312657486e-12,0
29,PERFORM2019:AC:7:698:1,698,7,1,167,1.18697532574577,1.18107797695337,0,0,0.00555829330367885,0,0,0,0,0,0,2.77555756156289e-17,0
30,PERFORM2019:AC:7:699:1,699,7,1,167,5.66217297969515,5.65920201946979,0,0,0.0264187972349958,0,0,0,0,0,0,8.88347810136785e-16,0
31,PERFORM2019:AC:8:676:1,676,8,1,167,10.8991342921108,10.9317656065871,0,0,-0.0539460926604249,0,0,0,0,0,0,1.83102671940889e-15,0
32,PERFORM2019:AC:8:677:1,677,8,1,167,17.6894628552653,17.6655969083652,0,0,0.0871604155309456,0,0,0,0,0,0,2.35599170085585e-12,0
33,PERFORM2019:AC:9:524:1,9,524,1,556,11.2808077501531,11.8425880459348,0,0,0.114759392308287,0,0,0,0,0,0,2.51214793389404e-15,0
34,PERFORM2019:AC:9:649:1,649,9,1,556,22.2548951384956,21.9944480019632,0,0,-0.599076365821702,0,0,0,0,0,0,4.4123788528247e-13,0
35,PERFORM2019:AC:9:649:2,649,9,1,556,22.2548951384956,21.9944480019632,0,0,-0.599076365821702,0,0,0,0,0,0,4.4123788528247e-13,0
36,PERFORM2019:XFMR:9:848:1,848,9,1,750,209.057723003823,202.472844503676,0,0,7.57553351649383,0,0,0,0,0,0,2.8421709430404e-14,0
37,PERFORM2019:AC:9:851:1,9,851,1,240,116.771821535569,116.302946458117,0,0,0.867200909612379,0,0,0,0,0,0,5.49075498022787e-13,0
38,PERFORM2019:AC:10:450:1,10,450,1,167,14.8099999999609,14.8213846983302,0,0,-0.151954584265738,0,0,0,0,0,0,1.41137923923527e-12,0
39,PERFORM2019:AC:11:489:1,11,489,1,167,15.8374525447883,15.7554006066202,0,0,0.0650617024588627,0,0,0,0,0,0,5.78621130931022e-12,0
40,PERFORM2019:AC:11:795:1,795,11,1,167,21.4013246748952,21.3897292371412,0,0,0.0196085081730928,0,0,0,0,0,0,1.15628823523187e-11,0
41,PERFORM2019:AC:12:872:1,872,12,1,167,3.42000703478039,3.42000000008227,0,0,0.000359018410875933,0,0,0,0,0,0,1.03555902416655e-10,0
42,PERFORM2019:AC:13:196:1,13,196,1,167,10.9072719235126,10.8524057055699,0,0,-0.0274444551501176,0,0,0,0,0,0,1.77635683940025e-15,0
43,PERFORM2019:AC:13:864:1,864,13,1,167,7.001989012156,6.48149276926994,0,0,-0.0159445930862177,0,0,0,0,0,0,8.88178419700125e-16,0
44,PERFORM2019:AC:13:865:1,865,13,1,167,6.86029897793095,6.33227874155265,0,0,-0.0124141146971084,0,0,0,0,0,0,8.07574976553931e-13,0
45,PERFORM2019:AC:13:1442:1,13,1442,1,167,10.9176949424782,10.8628995883344,0,0,-0.0275393504988557,0,0,0,0,0,0,0,0
46,PERFORM2019:AC:14:460:1,14,460,1,167,2.08241209830921,2.0800000000035,0,0,0.00698818281753688,0,0,0,0,0,0,4.28860521490375e-12,0
47,PERFORM2019:AC:14:1017:1,1017,14,1,167,6.23793232649147,6.23084648068561,0,0,0.0417196333222734,0,0,0,0,0,0,2.88221103288262e-12,0
48,PERFORM2019:AC:15:59:1,59,15,1,167,27.5746736132763,28.1890887644355,0,0,-2.3825953638827,0,0,0,0,0,0,1.75079319721585e-13,0
49,PERFORM2019:AC:15:402:1,15,402,1,167,16.4247679581291,16.4683334040815,0,0,-0.0808728205984011,0,0,0,0,0,0,2.61150434828765e-12,0
50,PERFORM2019:AC:16:391:1,16,391,1,167,40.0039523408194,39.6550367877559,0,0,2.00476868539552,0,0,0,0,0,0,2.70099715873303e-13,0
51,PERFORM2019:AC:16:1030:1,1030,16,1,167,67.9502630452374,67.78445989022,0,0,1.34506255454477,0,0,0,0,0,0,1.77635683940025e-15,0
52,PERFORM2019:AC:16:1050:1,1050,16,1,167,83.2498558438702,82.7942907988761,0,0,4.91735706919005,0,0,0,0,0,0,1.4210854715202e-14,0
53,PERFORM2019:AC:16:1051:1,1051,16,1,167,65.3853450401149,65.4066014107288,0,0,-0.321329510593813,0,0,0,0,0,0,7.94410929039127e-15,0
54,PERFORM2019:AC:16:1394:1,16,1394,1,167,35.1338697705608,34.707481777771,0,0,2.15616542863128,0,0,0,0,0,0,7.105427357601e-15,0
55,PERFORM2019:AC:17:628:N1,17,628,1,300,176.269455666689,173.967982019918,0,0,0.815559797790236,0,0,0,0,0,0,2.57875136286805e-12,0
56,PERFORM2019:AC:17:628:N2,17,628,1,300,176.269455666689,173.967982019918,0,0,0.815559797790236,0,0,0,0,0,0,2.57875136286805e-12,0
57,PERFORM2019:XFMR:17:1467:1,17,1467,1,500,67.3657601942579,67.4335629119716,0,0,4.11063185242001,0,0,0,0,0,0,1.27974768033755e-13,0
58,PERFORM2019:XFMR:17:1467:2,17,1467,1,500,67.3657601942579,67.4335629119716,0,0,4.11063185242001,0,0,0,0,0,0,1.27974768033755e-13,0
59,PERFORM2019:AC:18:561:1,18,561,1,250,115.757271856692,115.194581176966,0,0,6.48120024827038,0,0,0,0,0,0,2.1316282072803e-13,0
60,PERFORM2019:AC:18:583:1,18,583,1,200,63.8564326418516,63.6202454715733,0,0,0.876808729968552,0,0,0,0,0,0,8.94021179374364e-13,0
61,PERFORM2019:AC:18:585:1,18,585,1,250,98.8575343412706,98.4523301706837,0,0,1.08370475287279,0,0,0,0,0,0,1.30370554649161e-12,0
62,PERFORM2019:AC:18:1494:1,18,1494,1,250,41.9326960388711,41.9916130791679,0,0,-0.192840710807538,0,0,0,0,0,0,2.87776253372108e-12,0
63,PERFORM2019:AC:18:1494:2,18,1494,1,250,46.8266586863962,46.892374704885,0,0,-0.192840710807538,0,0,0,0,0,0,2.03890677211081e-12,0
64,PERFORM2019:AC:18:1494:3,18,1494,1,250,46.8266586863962,46.892374704885,0,0,-0.192840710807538,0,0,0,0,0,0,2.03890677211081e-12,0
65,PERFORM2019:AC:19:1538:1,19,1538,1,556,245.70768448829,244.098249162657,0,0,2.16378153892996,0,0,0,0,0,0,1.05050445425949e-12,0
66,PERFORM2019:AC:19:1538:2,19,1538,1,556,245.70768448829,244.098249162657,0,0,2.16378153892996,0,0,0,0,0,0,1.05050445425949e-12,0
67,PERFORM2019:AC:19:1538:3,19,1538,1,556,245.70768448829,244.098249162657,0,0,2.16378153892996,0,0,0,0,0,0,1.05050445425949e-12,0
68,PERFORM2019:AC:19:1538:4,19,1538,1,556,245.70768448829,244.098249162657,0,0,2.16378153892996,0,0,0,0,0,0,1.05050445425949e-12,0
69,PERFORM2019:AC:19:1538:5,19,1538,1,556,245.70768448829,244.098249162657,0,0,2.16378153892996,0,0,0,0,0,0,1.05050445425949e-12,0
70,PERFORM2019:AC:20:1004:1,1004,20,1,167,35.582482225161,35.578495721579,0,0,0.0451979797158657,0,0,0,0,0,0,1.04289012933254e-11,0
71,PERFORM2019:AC:20:1008:1,1008,20,1,167,55.0041912125393,55.3843862067207,0,0,-1.82284437049971,0,0,0,0,0,0,3.65568238626643e-13,0
72,PERFORM2019:AC:20:1020:1,1020,20,1,167,38.3030868756429,38.1423008597883,0,0,0.8222298248496,0,0,0,0,0,0,3.56831137920884e-13,0
73,PERFORM2019:AC:20:1195:1,1195,20,1,167,6.47767921653146,6.52927740561457,0,0,-0.142291238398215,0,0,0,0,0,0,7.21861794149273e-13,0
74,PERFORM2019:AC:21:403:1,21,403,1,167,25.1380978507839,25.0458605689638,0,0,0.294824218045335,0,0,0,0,0,0,2.60690170761079e-12,0
75,PERFORM2019:AC:21:406:1,21,406,1,116,25.0744369072123,25.2828030900487,0,0,-1.00612951956573,0,0,0,0,0,0,8.22944157967136e-14,0
76,PERFORM2019:AC:21:1004:1,1004,21,1,167,14.0415815490551,14.0167081077624,0,0,0.00283219729534778,0,0,0,0,0,0,2.58803000287101e-11,0
77,PERFORM2019:AC:21:1005:1,1005,21,1,167,32.8535436064938,32.7389591314346,0,0,0.405265180224816,0,0,0,0,0,0,1.62387096233614e-12,0
78,PERFORM2019:AC:21:1009:1,1009,21,1,167,56.4197929350324,56.8253181108167,0,0,-1.86317520075252,0,0,0,0,0,0,1.14905240413528e-12,0
79,PERFORM2019:AC:22:1204:1,1204,22,1,96,1.54588289076476,1.54000000000016,0,0,0.0566265425565149,0,0,0,0,0,0,3.61196933466255e-13,0
80,PERFORM2019:AC:23:751:1,751,23,1,167,37.0673307969165,37.4979629291264,0,0,-2.70950161895112,0,0,0,0,0,0,7.105427357601e-15,0
81,PERFORM2019:AC:23:1193:1,1193,23,1,167,65.6942633284648,65.4989820102665,0,0,1.03336124777107,0,0,0,0,0,0,8.88178419700125e-16,0
82,PERFORM2019:AC:23:1194:1,1194,23,1,167,65.4953553215106,65.3007713822214,0,0,1.02901883593879,0,0,0,0,0,0,1.43214466921978e-14,0
83,PERFORM2019:AC:23:1208:1,1208,23,1,167,38.9734509379532,39.243983235737,0,0,-1.60464099134074,0,0,0,0,0,0,4.44089209850063e-16,0
84,PERFORM2019:AC:23:1214:1,1214,23,1,167,44.6670006131844,44.7269117781835,0,0,-0.400978626867968,0,0,0,0,0,0,1.77635683940025e-15,0
85,PERFORM2019:AC:24:908:1,908,24,1,167,21.6306710864717,21.5920396870414,0,0,-0.0670808405419479,0,0,0,0,0,0,4.10278752275812e-12,0
86,PERFORM2019:AC:24:913:1,913,24,1,167,6.28908209799609,6.61980180068945,0,0,-0.408756922512467,0,0,0,0,0,0,2.25886224597748e-13,0
87,PERFORM2019:AC:24:914:1,914,24,1,167,4.38072536380556,4.8420593843592,0,0,-0.391388053198455,0,0,0,0,0,0,1.63519532771142e-13,0
88,PERFORM2019:AC:24:1100:1,1100,24,1,167,67.6703165732265,67.244945433839,0,0,4.51986964529208,0,0,0,0,0,0,3.5527136788005e-15,0
89,PERFORM2019:AC:24:1102:1,1102,24,1,167,49.2186418404015,49.7345008276226,0,0,-2.88818757725997,0,0,0,0,0,0,7.1607233460989e-15,0
90,PERFORM2019:AC:25:83:1,25,83,1,167,2.08000000000133,2.21020480793242,0,0,-0.0518904325943907,0,0,0,0,0,0,1.14620556894889e-12,0
91,PERFORM2019:AC:26:557:1,26,557,1,1216,373.595678646832,373.568282861342,0,0,0.0391437564842931,0,0,0,0,0,0,2.48689957516035e-14,0
92,PERFORM2019:AC:26:557:2,26,557,1,1216,394.287845122943,394.26083637207,0,0,0.0391437564842931,0,0,0,0,0,0,5.72857867687912e-14,0
93,PERFORM2019:XFMR:26:1468:1,26,1468,1,1347,482.11406777773,479.769306620699,0,0,14.9210988455929,0,0,0,0,0,0,3.63975473046187e-13,0
94,PERFORM2019:AC:27:1068:1,1068,27,1,167,64.3600339130812,64.3658059447179,0,0,-0.00799409806796803,0,0,0,0,0,0,8.1161972208437e-11,0
95,PERFORM2019:AC:27:1070:1,1070,27,1,167,59.0614817233361,59.077304265201,0,0,-0.0407906728294734,0,0,0,0,0,0,2.09165269580723e-11,0
96,PERFORM2019:AC:28:1286:1,1286,28,1,116,35.8087331331387,35.817006597367,0,0,-0.0419847299124143,0,0,0,0,0,0,1.29598896121023e-11,0
97,PERFORM2019:AC:28:1287:1,1287,28,1,116,37.8630028881932,37.8548569517065,0,0,0.0439545573763667,0,0,0,0,0,0,1.63946373357674e-11,0
98,PERFORM2019:AC:29:124:1,124,29,1,167,39.477071250834,40.0287180736716,0,0,-3.0905412683535,0,0,0,0,0,0,1.85431575349975e-13,0
99,PERFORM2019:AC:29:152:1,29,152,1,167,23.5693255591081,23.7290590833305,0,0,-0.471760464559537,0,0,0,0,0,0,5.4117987316231e-13,0
100,PERFORM2019:AC:29:212:1,212,29,1,167,36.2868754530485,36.4477452537879,0,0,-1.16288493782645,0,0,0,0,0,0,3.70642931053208e-13,0
101,PERFORM2019:AC:29:896:1,896,29,1,167,42.3162370840516,42.7800362628246,0,0,-2.74385412452202,0,0,0,0,0,0,2.35613496264991e-13,0
102,PERFORM2019:AC:30:55:1,30,55,1,167,54.5926191425899,54.1390235269722,0,0,3.01937028014046,0,0,0,0,0,0,2.9885587109696e-13,0
103,PERFORM2019:AC:30:131:1,30,131,1,167,6.85400545162873,7.3848624435334,0,0,-0.0871309000064713,0,0,0,0,0,0,7.23481295575409e-13,0
104,PERFORM2019:AC:31:32:1,32,31,1,135,10.910609042422,10.900678504693,0,0,0.0166112966111882,0,0,0,0,0,0,5.97317970114295e-12,0
105,PERFORM2019:AC:31:680:1,680,31,1,167,66.487385395279,66.5120348334587,0,0,-0.19509740259123,0,0,0,0,0,0,5.52392141452071e-12,0
106,PERFORM2019:AC:32:84:1,32,84,1,120,4.98789374060555,4.84810507218218,0,0,0.119369179002476,0,0,0,0,0,0,5.13719856566377e-13,0
107,PERFORM2019:AC:32:474:1,32,474,1,167,79.7152388662275,79.6206247108781,0,0,1.05490711729441,0,0,0,0,0,0,1.81532544689154e-12,0
108,PERFORM2019:AC:32:678:2,32,678,1,167,51.7171372614362,51.6166468445039,0,0,0.787046094223712,0,0,0,0,0,0,9.23876344241552e-14,0
109,PERFORM2019:AC:33:140:1,33,140,1,167,85.5622801915553,85.2966268656507,0,0,1.72562579872884,0,0,0,0,0,0,1.26829514811159e-12,0
110,PERFORM2019:AC:33:1469:1,33,1469,1,167,33.4466624957083,33.5950617084873,0,0,-0.830078866760914,0,0,0,0,0,0,5.47558934294327e-13,0
111,PERFORM2019:AC:34:1178:1,1178,34,1,167,34.1585358134585,34.1651859826961,0,0,-0.0717401406724321,0,0,0,0,0,0,5.22249401698386e-12,0
112,PERFORM2019:AC:34:1179:1,1179,34,1,167,17.5466604899519,17.5197926096503,0,0,-0.0282584952138905,0,0,0,0,0,0,3.23433753862043e-12,0
113,PERFORM2019:AC:35:36:1,35,36,1,175,78.5782360351792,78.5744301730802,0,0,-0.0345999298932469,0,0,0,0,0,0,1.4210854715202e-14,0
114,PERFORM2019:AC:35:36:2,35,36,1,175,78.5782360351792,78.5744301730802,0,0,-0.0345999298932469,0,0,0,0,0,0,1.4210854715202e-14,0
115,PERFORM2019:AC:35:191:1,35,191,1,167,35.5646755632573,35.3795788008676,0,0,1.41074459042817,0,0,0,0,0,0,8.88178419700125e-16,0
116,PERFORM2019:AC:35:485:1,35,485,1,116,55.9543101978145,55.9561777230893,0,0,2.44582195113087,0,0,0,0,0,0,2.70379950825947e-13,0
117,PERFORM2019:AC:35:485:2,35,485,1,116,55.9543101978145,55.9561777230893,0,0,2.44582195113087,0,0,0,0,0,0,2.70379950825947e-13,0
118,PERFORM2019:AC:36:190:1,36,190,1,167,63.7649628635204,64.3163993025252,0,0,-4.55099207382737,0,0,0,0,0,0,3.76939405423693e-13,0
119,PERFORM2019:AC:36:192:1,36,192,1,175,84.1313385740391,84.0614052920216,0,0,-1.62594792739812,0,0,0,0,0,0,1.58882185807825e-14,0
120,PERFORM2019:AC:36:192:2,36,192,1,175,84.1313385740391,84.0614052920216,0,0,-1.62594792739812,0,0,0,0,0,0,1.58882185807825e-14,0
121,PERFORM2019:AC:36:490:N,490,36,1,116,41.7543101587492,42.2012330340185,0,0,-5.81493639369086,0,0,0,0,0,0,7.32410687763558e-15,0
122,PERFORM2019:AC:37:270:1,37,270,1,167,102.196164700946,101.824204849407,0,0,0.584267343312916,0,0,0,0,0,0,1.77635683940025e-15,0
123,PERFORM2019:AC:37:270:2,37,270,1,167,79.6479405432533,79.3698497633667,0,0,0.584267343312916,0,0,0,0,0,0,1.43214466921978e-14,0
124,PERFORM2019:AC:37:273:1,37,273,1,167,2.53239006709895,2.53000000000281,0,0,0.0088375674059904,0,0,0,0,0,0,4.44119701989335e-16,0
125,PERFORM2019:AC:38:91:1,38,91,1,167,74.4159379901488,74.1772899345876,0,0,1.48372603885302,0,0,0,0,0,0,1.14886350657333e-12,0
126,PERFORM2019:AC:38:97:1,38,97,1,167,21.3225806757448,21.2397966073944,0,0,0.725846898944866,0,0,0,0,0,0,3.68047803717632e-13,0
127,PERFORM2019:AC:39:1307:1,39,1307,1,453,88.5200336206361,88.1489514629259,0,0,0.362715699134171,0,0,0,0,0,0,2.99056835705533e-12,0
128,PERFORM2019:XFMR:39:1469:1,39,1469,1,326,37.7020008042878,37.7661905971961,0,0,1.28914242258318,0,0,0,0,0,0,3.59931496482207e-13,0
129,PERFORM2019:AC:40:779:1,779,40,1,167,2.09398940074086,2.08000000000066,0,0,0.0163206845437713,0,0,0,0,0,0,2.29013270518173e-12,0
130,PERFORM2019:AC:41:932:1,932,41,1,167,43.1057157853687,43.1102882733446,0,0,-0.0238526835634474,0,0,0,0,0,0,2.39096205270417e-11,0
131,PERFORM2019:AC:41:933:1,933,41,1,167,19.0636781689759,19.0581981575425,0,0,-0.0106591212769729,0,0,0,0,0,0,3.28025211103849e-11,0
132,PERFORM2019:AC:42:46:1,42,46,1,167,7.58170085007733,7.58057581313902,0,0,0.0124008554648753,0,0,0,0,0,0,1.04517393968429e-11,0
133,PERFORM2019:AC:42:1116:1,1116,42,1,167,35.0665389969813,35.1147963984273,0,0,-0.305536315551251,0,0,0,0,0,0,7.1607233460989e-15,0
134,PERFORM2019:AC:42:1328:1,1328,42,1,167,26.4556660822022,26.7150794842372,0,0,-1.30322625066992,0,0,0,0,0,0,2.70138046401467e-13,0
135,PERFORM2019:AC:42:1329:1,1329,42,1,167,26.4576824735501,26.7172511114292,0,0,-1.30350765542848,0,0,0,0,0,0,2.73675718042739e-13,0
136,PERFORM2019:AC:42:1330:1,42,1330,1,167,65.7549969662548,65.7600437615276,0,0,-0.0554877584671374,0,0,0,0,0,0,1.73886285327541e-11,0
137,PERFORM2019:AC:42:1576:1,42,1576,1,167,25.133647516478,25.1268555458962,0,0,-0.483676365852332,0,0,0,0,0,0,3.58036167304945e-15,0
138,PERFORM2019:AC:42:1576:2,42,1576,1,167,25.1964273284648,25.1900194366437,0,0,-0.483676365852332,0,0,0,0,0,0,3.5527136788005e-15,0
139,PERFORM2019:AC:43:45:1,45,43,1,167,6.34607088281445,6.34193802118494,0,0,0.00774910670692464,0,0,0,0,0,0,3.11908463581653e-11,0
140,PERFORM2019:AC:43:1116:1,1116,43,1,167,1.27816116813602,1.42188997778855,0,0,-0.0189803585301576,0,0,0,0,0,0,1.81007170902503e-12,0
141,PERFORM2019:AC:44:45:1,45,44,1,167,2.53013282401362,2.52999999997208,0,0,0.0019848713837689,0,0,0,0,0,0,4.34401041334297e-11,0
142,PERFORM2019:AC:45:1330:1,45,1330,1,167,16.4332395190653,16.4880688548254,0,0,-0.334294608781306,0,0,0,0,0,0,1.08715743799214e-12,0
143,PERFORM2019:AC:46:1438:1,46,1438,1,167,2.5315736307448,2.5299999999949,0,0,0.00710804851445346,0,0,0,0,0,0,8.69684957334888e-12,0
144,PERFORM2019:AC:47:1106:1,1106,47,1,167,2.71815886984344,2.53000000000015,0,0,0.0836919092642745,0,0,0,0,0,0,4.53489514797961e-13,0
145,PERFORM2019:AC:48:86:1,48,86,1,167,19.9994803697961,20.2908332680193,0,0,-0.486505368408373,0,0,0,0,0,0,4.53204298490851e-13,0
146,PERFORM2019:AC:48:1107:1,1107,48,1,167,6.45762721121506,7.03996315354231,0,0,-0.151263479824237,0,0,0,0,0,0,5.81111730342435e-13,0
147,PERFORM2019:AC:48:1108:1,48,1108,1,167,7.03801098381319,6.45560451156306,0,0,0.151544927407556,0,0,0,0,0,0,1.77635683940025e-15,0
148,PERFORM2019:AC:48:1369:1,48,1369,1,167,2.41960206291876,3.94831779946686,0,0,-0.107948409074396,0,0,0,0,0,0,4.58789506239622e-14,0
149,PERFORM2019:AC:49:1015:1,1015,49,1,167,6.48007082094004,6.46290213001472,0,0,-0.0333117526300697,0,0,0,0,0,0,2.91551614998332e-12,0
150,PERFORM2019:AC:49:1016:1,1016,49,1,167,10.5943760369824,10.6001503361332,0,0,0.0550233229817394,0,0,0,0,0,0,5.09384022838346e-12,0
151,PERFORM2019:AC:50:412:1,50,412,1,167,2.21883474519702,2.23414558607621,0,0,-0.0174105248714085,0,0,0,0,0,0,1.43119040976366e-12,0
152,PERFORM2019:AC:50:1031:1,1031,50,1,167,1.94098715759478,1.93170315854314,0,0,0.0147883984564459,0,0,0,0,0,0,2.28878339926112e-16,0
153,PERFORM2019:AC:51:131:1,51,131,1,167,4.18000000000015,4.18496137540768,0,0,-0.0265653601796885,0,0,0,0,0,0,4.33680868994202e-17,0
154,PERFORM2019:AC:52:131:1,52,131,1,167,11.9176897679739,11.9295076901615,0,0,0.399127021572014,0,0,0,0,0,0,3.63306842125129e-13,0
155,PERFORM2019:AC:53:152:1,53,152,1,167,32.416172120451,31.830843820679,0,0,2.66721635790432,0,0,0,0,0,0,3.97205464519564e-15,0
156,PERFORM2019:AC:53:1565:1,1565,53,1,167,2.69637616321241,2.64928823406951,0,0,0.130463319162089,0,0,0,0,0,0,0,0
157,PERFORM2019:AC:54:132:1,54,132,1,453,108.632837909141,111.441209800325,0,0,-1.7228521838084,0,0,0,0,0,0,8.15268449225785e-13,0
158,PERFORM2019:AC:54:1303:1,1303,54,1,453,105.649905071189,108.63283790914,0,0,-2.32833812709517,0,0,0,0,0,0,7.55392482505742e-13,0
159,PERFORM2019:AC:55:56:1,55,56,1,167,31.7857482653845,31.6497133564249,0,0,0.657527594234338,0,0,0,0,0,0,3.66205343881779e-15,0
160,PERFORM2019:AC:55:124:1,124,55,1,167,9.56820884607096,10.3935408824138,0,0,-0.81286926291628,0,0,0,0,0,0,0,0
161,PERFORM2019:AC:56:57:1,56,57,1,167,23.4932002568123,23.2937042196117,0,0,0.645801241603195,0,0,0,0,0,0,8.88178419700125e-16,0
162,PERFORM2019:AC:57:133:1,57,133,1,167,15.2852170285118,15.0040852359374,0,0,0.442573534103033,0,0,0,0,0,0,4.49506036466352e-13,0
163,PERFORM2019:AC:58:353:1,58,353,1,417,119.887271501061,119.676149454589,0,0,0.53518239618711,0,0,0,0,0,0,2.90133456146521e-12,0
164,PERFORM2019:AC:58:1552:1,58,1552,1,417,126.148846918117,126.168674884525,0,0,-0.0478054834845523,0,0,0,0,0,0,4.17562649999503e-11,0
165,PERFORM2019:AC:59:83:1,59,83,1,167,3.84282211556736,3.99609405690557,0,0,-0.0581288838925644,0,0,0,0,0,0,2.46529241229419e-12,0
166,PERFORM2019:AC:59:83:2,59,83,1,167,3.85030719555216,4.00326059068073,0,0,-0.0581288838925644,0,0,0,0,0,0,2.53798033428092e-12,0
167,PERFORM2019:AC:59:1027:1,1027,59,1,167,103.733230238526,104.151023628862,0,0,-1.7540176894709,0,0,0,0,0,0,3.4195215200244e-13,0
168,PERFORM2019:AC:59:1028:1,1028,59,1,167,103.888080459377,104.306306957502,0,0,-1.75371740887272,0,0,0,0,0,0,8.18946740881725e-13,0
169,PERFORM2019:AC:59:1040:1,1040,59,1,167,13.4067942075626,12.9141257459981,0,0,0.684678020510717,0,0,0,0,0,0,2.72819728262846e-13,0
170,PERFORM2019:AC:59:1041:1,1041,59,1,167,13.3273602074989,12.8333009752689,0,0,0.680375698012639,0,0,0,0,0,0,2.90351489094096e-13,0
171,PERFORM2019:XFMR:59:1220:NX,59,1220,1,325,162.775103754025,163.084163486037,0,0,-5.58090160918508,0,0,0,0,0,0,1.50152071817929e-13,0
172,PERFORM2019:AC:60:500:1,60,500,1,96,8.48157190869112,8.53130692964709,0,0,-0.3697166308866,0,0,0,0,0,0,3.62128815003096e-13,0
173,PERFORM2019:AC:60:533:1,533,60,1,96,16.7710343506562,16.9083996129104,0,0,-0.968527749253411,0,0,0,0,0,0,2.13209075002357e-14,0
174,PERFORM2019:AC:61:1271:1,1271,61,1,167,28.146545103884,27.3718193208005,0,0,2.33294399401376,0,0,0,0,0,0,3.5527136788005e-15,0
175,PERFORM2019:AC:61:1289:1,61,1289,1,167,8.00138438123557,7.12733933712846,0,0,0.408202311121357,0,0,0,0,0,0,3.65214441021847e-13,0
176,PERFORM2019:AC:61:1289:2,61,1289,1,167,8.23626239928522,7.39137447956542,0,0,0.408202311121357,0,0,0,0,0,0,2.02584522099106e-13,0
177,PERFORM2019:AC:62:63:1,63,62,1,1216,573.254836619958,573.256297547937,0,0,0.0157658617464733,0,0,0,0,0,0,4.40652043931901e-10,0
178,PERFORM2019:AC:62:722:1,62,722,1,1216,573.256297547366,572.558890344501,0,0,1.21125944877913,0,0,0,0,0,0,5.47277639985539e-12,0
179,PERFORM2019:AC:63:800:1,63,800,1,1216,90.706236129894,95.4131070256255,0,0,0.16078489117055,0,0,0,0,0,0,2.00971834711523e-14,0
180,PERFORM2019:AC:64:422:1,64,422,1,167,2.08000000000977,2.08000647353725,0,0,-0.000283262795406358,0,0,0,0,0,0,4.46929545479821e-16,0
181,PERFORM2019:AC:65:1000:1,1000,65,1,167,4.40484018828399,4.79840886162786,0,0,-0.14390644908373,0,0,0,0,0,0,2.22044604925031e-16,0
182,PERFORM2019:AC:65:1573:1,65,1573,1,167,9.52872119973885,9.63937722893811,0,0,-0.131321531608364,0,0,0,0,0,0,1.83102671940889e-15,0
183,PERFORM2019:AC:66:890:1,890,66,1,167,1.13549260473318,1.13587252012504,0,0,0.000114547824381361,0,0,0,0,0,0,9.54393999906561e-11,0
184,PERFORM2019:AC:66:891:1,891,66,1,167,3.92554758899184,3.92539063490836,0,0,0.000481061272708416,0,0,0,0,0,0,4.44955726205437e-16,0
185,PERFORM2019:AC:67:889:1,889,67,1,167,2.53061751082141,2.53000000001322,0,0,0.00444450120423312,0,0,0,0,0,0,9.26444795833402e-12,0
186,PERFORM2019:AC:68:134:1,68,134,1,167,8.6578014534318,8.79433488606268,0,0,0.282120789148948,0,0,0,0,0,0,2.22044604925031e-16,0
187,PERFORM2019:AC:68:1323:1,1323,68,1,167,13.6959063936397,13.694940695871,0,0,0.39443785375893,0,0,0,0,0,0,1.77635683940025e-15,0
188,PERFORM2019:AC:69:77:1,69,77,1,167,2.28152267216423,2.28044246573716,0,0,-0.0883046330081356,0,0,0,0,0,0,4.0521485676471e-13,0
189,PERFORM2019:AC:69:77:2,69,77,1,167,2.2825353549439,2.28145172367049,0,0,-0.0883046330081356,0,0,0,0,0,0,3.26890685856033e-13,0
190,PERFORM2019:AC:69:891:1,891,69,1,167,19.576268491968,19.6998859271667,0,0,-0.693213205967183,0,0,0,0,0,0,3.73892786706634e-13,0
191,PERFORM2019:AC:69:1331:1,1331,69,1,167,21.7286406310309,21.7329014450787,0,0,-0.0395280719337023,0,0,0,0,0,0,5.97708743349732e-12,0
192,PERFORM2019:AC:69:1332:1,1332,69,1,167,21.7697282729086,21.7741376101777,0,0,-0.0404496980567046,0,0,0,0,0,0,1.15909391166898e-11,0
193,PERFORM2019:AC:70:1331:1,1331,70,1,167,7.02077885097175,7.02073494950322,0,0,0.000736116573492041,0,0,0,0,0,0,8.89505575813264e-16,0
194,PERFORM2019:AC:70:1332:1,1332,70,1,167,1.97103883493962,1.97110943530034,0,0,-0.000185509549510243,0,0,0,0,0,0,1.15942337100457e-10,0
195,PERFORM2019:AC:71:78:1,71,78,1,167,10.4014495737817,10.3891784374552,0,0,0.243929751596667,0,0,0,0,0,0,1.77635683940025e-15,0
196,PERFORM2019:AC:71:1000:1,1000,71,1,167,14.215695397063,14.248991739166,0,0,-0.288725037011645,0,0,0,0,0,0,1.77635683940025e-15,0
197,PERFORM2019:AC:71:1572:1,71,1572,1,167,32.224614476097,32.4245984341312,0,0,-1.31252397013112,0,0,0,0,0,0,4.08685204789687e-13,0
198,PERFORM2019:AC:72:1325:1,1325,72,1,167,2.53001257524382,2.53000000010027,0,0,0.000473690713278074,0,0,0,0,0,0,1.46705541945344e-10,0
199,PERFORM2019:AC:73:74:1,73,74,1,167,6.81619838348387,6.83476292692628,0,0,0.0237288462393508,0,0,0,0,0,0,8.96425940094422e-12,0
200,PERFORM2019:AC:73:1325:1,1325,73,1,167,11.8254137040002,11.8271674809329,0,0,0.00950559881870561,0,0,0,0,0,0,5.06352946396191e-11,0
...
